iidm/iidm-serde/src/test/resources/geographicalTags.xml
<?xml version="1.0" encoding="UTF-8"?>
<iidm:network xmlns:iidm="http://www.powsybl.org/schema/iidm/1_18" id="test" caseDate="2020-03-04T13:20:30.476+01:00" forecastDistance="0" sourceFormat="test" minimumValidationLevel="STEADY_STATE_HYPOTHESIS">
    <iidm:substation id="sub1" geographicalTags="geoTag1,geoTag2">
        <iidm:voltageLevel id="VL1" nominalV="1.0" topologyKind="NODE_BREAKER">
            <iidm:nodeBreakerTopology/>
        </iidm:voltageLevel>
    </iidm:substation>
    <iidm:substation id="sub2" geographicalTags="geoTag3,geoTag4"/>
</iidm:network>
